LTspice 24.0.12 for Windows
Circuit: * C:\Users\asad1\OneDrive\Documents\APPs_DATA\GitHub\STM32-G061F6P6\Electronics_simulations and circuits\LTSpice_3V3power\Draft1.asc
Start Time: Sat Dec 14 19:07:06 2024
solver = Normal
Maximum thread count: 8
tnom = 27
temp = 27
method = modified trap
Direct Newton iteration for .op point succeeded.
Total elapsed time: 0.072 seconds.

