LTspice 24.0.12 for Windows
Circuit: * C:\Users\asad1\OneDrive\Documentos\GitHub\STM32-G061F6P6-Learning\Electronics_simulations and circuits\3V3 power from USB A to USBC breakout.asc
Start Time: Thu Nov 14 18:28:26 2024
solver = Normal
Maximum thread count: 8
tnom = 27
temp = 27
method = modified trap
c4: Increased Cpar to 2.2e-10
c1: Increased Cpar to 2.2e-10
WARNING: Specified period is not longer than the sum of Trise, Tfall, and Ton for i§load_or_microcontrollers_power_consumption.  Increasing period to 4
Direct Newton iteration failed to find .op point.  (Use ".option noopiter" to skip.)
Starting Gmin stepping
Gmin = 10
Gmin = 1.07374
Gmin = 0.115292
Gmin = 0.0123794
Gmin = 0.00132923
Gmin = 0.000142725
Gmin = 1.5325e-05
Gmin = 1.6455e-06
Gmin = 1.76685e-07
Gmin = 1.89714e-08
Gmin = 2.03704e-09
Gmin = 2.18725e-10
Gmin = 2.34854e-11
Gmin = 2.52173e-12
Gmin = 2.70769e-13
Gmin = 0
Gmin stepping succeeded in finding the operating point.

Total elapsed time: 0.149 seconds.

